  
       XFOIL         Version 6.94
  
 Calculated polar for: DAE11                                           
  
 1 1 Reynolds number fixed          Mach number fixed         
  
 xtrf =   1.000 (top)        1.000 (bottom)  
 Mach =   0.000     Re =     0.500 e 6     Ncrit =   9.000
  
  alpha     CL        CD       CDp       CM    Top_Xtr Bot_Xtr
 ------- -------- --------- --------- -------- ------- -------
   5.000   1.2167   0.00992   0.00500  -0.1305  0.5821  0.9931
